powerflow/Codes/PF_Formulation/resultados_csv/17/9bus_transformer_fields/barras.csv
caso,script,bus_id,vm_pu,va_rad,pd_pu,qd_pu,pg_pu,qg_pu,bus_type
9bus_transformer_fields.pwf,17,1,1.035198592675546,0.0,0.0,0.0,1.4277696314341624,0.261834184811522,3
9bus_transformer_fields.pwf,17,2,1.0163767892134055,-0.03143025774313587,0.0,0.0,0.9,-0.021692099230682698,2
9bus_transformer_fields.pwf,17,3,1.0204254637784942,-0.024604353262990805,0.0,0.0,0.85,-0.09846088133617859,2
9bus_transformer_fields.pwf,17,4,1.023716908099085,-0.07768084490345535,0.0,0.0,0.0,0.0,1
9bus_transformer_fields.pwf,17,5,0.9952752918211167,-0.14693047381945074,1.25,0.5,0.0,0.0,1
9bus_transformer_fields.pwf,17,6,1.0107266336438605,-0.12719808443733663,0.9,0.3,0.0,0.0,1
9bus_transformer_fields.pwf,17,7,1.019214397871716,-0.08575727862928276,0.0,0.0,0.0,0.0,1
9bus_transformer_fields.pwf,17,8,1.0098477834101756,-0.11993809635970193,1.0,0.35,0.0,0.0,1
9bus_transformer_fields.pwf,17,9,1.0272401958548558,-0.07214081196597837,0.0,0.0,0.0,0.0,1
